25

C     0.0000000000E+00   0.0000000000E+00   1.8392000000E+01
C     0.0000000000E+00   0.0000000000E+00   2.0064000000E+01
C     0.0000000000E+00   0.0000000000E+00   2.1736000000E+01
C     0.0000000000E+00   0.0000000000E+00   2.3408000000E+01
C     0.0000000000E+00   0.0000000000E+00   2.5080000000E+01
C     0.0000000000E+00   0.0000000000E+00   1.0032000000E+01
C     0.0000000000E+00   0.0000000000E+00   1.1704000000E+01
C     0.0000000000E+00   0.0000000000E+00   1.3376000000E+01
C     0.0000000000E+00   0.0000000000E+00   1.5048000000E+01
C     0.0000000000E+00   0.0000000000E+00   1.6720000000E+01
C     0.0000000000E+00   0.0000000000E+00   1.6720000000E+00
C     0.0000000000E+00   0.0000000000E+00   3.3440000000E+00
C     0.0000000000E+00   0.0000000000E+00   5.0160000000E+00
C     0.0000000000E+00   0.0000000000E+00   6.6880000000E+00
C     0.0000000000E+00   0.0000000000E+00   8.3600000000E+00
C     0.0000000000E+00   0.0000000000E+00   2.6752000000E+01
C     0.0000000000E+00   0.0000000000E+00   2.8424000000E+01
C     0.0000000000E+00   0.0000000000E+00   3.0096000000E+01
C     0.0000000000E+00   0.0000000000E+00   3.1768000000E+01
C     0.0000000000E+00   0.0000000000E+00   3.3440000000E+01
C     0.0000000000E+00   0.0000000000E+00   3.5112000000E+01
C     0.0000000000E+00   0.0000000000E+00   3.6784000000E+01
C     0.0000000000E+00   0.0000000000E+00   3.8456000000E+01
C     0.0000000000E+00   0.0000000000E+00   4.0128000000E+01
C     0.0000000000E+00   0.0000000000E+00   4.1800000000E+01
